
        /*--------------------------------*- C++ -*----------------------------------*        \*---------------------------------------------------------------------------*/
        FoamFile{
        version     2.0;
        format      ascii;
        class       pointVectorField;
        object      pointDisplacement;}
        
        // * * * * * * * * * * * * * * * * * * * * * * * * * * * * * * * * * * * * * //
        dimensions    [0 1 0 0 0 0 0];
        internalField uniform (0 0 0);
        boundaryField{
            leftWall{type           fixedNormalSlip;
                value           $internalField;
				n (1 0 0);
                }
            
            rightWall{type           fixedNormalSlip;
                value           $internalField;
				n (1 0 0);
                }
            atmosphere{type           fixedNormalSlip;
                value           $internalField;
				n (0 -1 0);
               }
            
            lowerWall{type           fixedNormalSlip;
                value           $internalField;
				n (0 -1 0);
               }
				
            defaultFaces{type           fixedNormalSlip;
                value           $internalField;
				n (0 0 1);
                }
            

            
            interface{
				type	fixedValue;
				value $internalField;
            }}
        
        // ************************************************************************* //
        