/*--------------------------------*- C++ -*----------------------------------*\
| =========                 |                                                 |
| \\      /  F ield         | OpenFOAM: The Open Source CFD Toolbox           |
|  \\    /   O peration     | Version:  2406                                  |
|   \\  /    A nd           | Website:  www.openfoam.com                      |
|    \\/     M anipulation  |                                                 |
\*---------------------------------------------------------------------------*/
FoamFile
{
    version     2.0;
    format      ascii;
    arch        "LSB;label=32;scalar=64";
    class       polyBoundaryMesh;
    location    "constant/polyMesh";
    object      boundary;
}
// * * * * * * * * * * * * * * * * * * * * * * * * * * * * * * * * * * * * * //

7
(
    leftWall
    {
        type            wall;
        inGroups        1(wall);
        nFaces          0;
        startFace       29816;
    }
    rightWall
    {
        type            wall;
        inGroups        1(wall);
        nFaces          144;
        startFace       29816;
    }
    interface
    {
        type            wall;
        inGroups        1(wall);
        nFaces          104;
        startFace       29960;
    }
    atmosphere
    {
        type            patch;
        nFaces          172;
        startFace       30064;
    }
    lowerWall
    {
        type            wall;
        inGroups        1(wall);
        nFaces          162;
        startFace       30236;
    }
    defaultFaces
    {
        type            patch;
        nFaces          12072;
        startFace       30398;
    }
    procBoundary1to0
    {
        type            processor;
        inGroups        1(processor);
        nFaces          146;
        startFace       42470;
        matchTolerance  0.0001;
        transform       unknown;
        myProcNo        1;
        neighbProcNo    0;
    }
)

// ************************************************************************* //
