/*--------------------------------*- C++ -*----------------------------------*\
| =========                 |                                                 |
| \\      /  F ield         | OpenFOAM: The Open Source CFD Toolbox           |
|  \\    /   O peration     | Version:  2406                                  |
|   \\  /    A nd           | Website:  www.openfoam.com                      |
|    \\/     M anipulation  |                                                 |
\*---------------------------------------------------------------------------*/
FoamFile
{
    version     2.0;
    format      ascii;
    arch        "LSB;label=32;scalar=64";
    class       polyBoundaryMesh;
    location    "constant/polyMesh";
    object      boundary;
}
// * * * * * * * * * * * * * * * * * * * * * * * * * * * * * * * * * * * * * //

7
(
    leftWall
    {
        type            wall;
        inGroups        1(wall);
        nFaces          144;
        startFace       29868;
    }
    rightWall
    {
        type            wall;
        inGroups        1(wall);
        nFaces          0;
        startFace       30012;
    }
    interface
    {
        type            wall;
        inGroups        1(wall);
        nFaces          0;
        startFace       30012;
    }
    atmosphere
    {
        type            patch;
        nFaces          166;
        startFace       30012;
    }
    lowerWall
    {
        type            wall;
        inGroups        1(wall);
        nFaces          168;
        startFace       30178;
    }
    defaultFaces
    {
        type            patch;
        nFaces          12072;
        startFace       30346;
    }
    procBoundary0to1
    {
        type            processor;
        inGroups        1(processor);
        nFaces          146;
        startFace       42418;
        matchTolerance  0.0001;
        transform       unknown;
        myProcNo        0;
        neighbProcNo    1;
    }
)

// ************************************************************************* //
